*SPEF "IEEE 1481-1998"
*DESIGN "ALU"
*DATE "Fri Jul 11 10:51:05 2025"
*VENDOR "Cadence Design Systems, Inc."
*PROGRAM "Innovus"
*VERSION "20.14-s095_1"
*DESIGN_FLOW "PIN_CAP NONE" "NAME_SCOPE LOCAL"
*DIVIDER /
*DELIMITER :
*BUS_DELIMITER []
*T_UNIT 1 NS
*C_UNIT 1 PF
*R_UNIT 1 OHM
*L_UNIT 1 HENRY

// MMMC spef file for corner 'RC'

*NAME_MAP

*1 A[3]
*2 A[2]
*3 A[1]
*4 A[0]
*5 B[3]
*6 B[2]
*7 B[1]
*8 B[0]
*9 OpCode[2]
*10 OpCode[1]
*11 OpCode[0]
*12 Result[7]
*13 Result[6]
*14 Result[5]
*15 Result[4]
*16 Result[3]
*17 Result[2]
*18 Result[1]
*19 Result[0]
*20 Zero
*21 Carry
*22 UNCONNECTED
*23 UNCONNECTED0
*24 n_2
*25 n_3
*26 n_4
*27 n_5
*28 n_6
*29 n_7
*30 n_8
*31 n_9
*32 n_10
*33 n_11
*34 n_12
*35 n_15
*36 n_17
*37 n_18
*38 n_19
*39 n_20
*40 n_22
*41 n_24
*42 n_25
*43 n_27
*44 n_29
*45 n_30
*46 n_31
*47 n_32
*48 n_33
*49 n_34
*50 n_35
*51 n_36
*52 n_37
*53 n_38
*54 n_39
*55 n_40
*56 n_41
*57 n_42
*58 n_44
*59 n_45
*60 n_46
*61 n_48
*62 n_49
*63 n_51
*64 n_52
*65 n_54
*66 n_55
*67 n_57
*68 n_58
*69 n_59
*70 n_60
*71 n_61
*72 n_62
*73 n_63
*74 n_64
*75 n_65
*76 n_66
*77 n_67
*78 n_68
*79 n_69
*80 n_70
*81 n_71
*82 n_72
*83 n_73
*84 n_74
*85 n_75
*86 n_76
*87 n_77
*88 n_79
*89 n_80
*90 n_82
*91 n_83
*92 n_87
*93 n_88
*94 n_89
*95 n_90
*96 n_91
*97 n_92
*98 n_93
*99 n_95
*100 n_96
*101 n_98
*102 n_99
*103 n_100
*104 n_101
*105 n_103
*106 n_104
*107 n_105
*108 n_106
*109 n_107
*110 n_108
*111 n_110
*112 n_112
*113 n_113
*114 n_114
*115 n_115
*116 n_117
*117 n_120
*118 n_121
*119 n_122
*120 n_123
*121 n_124
*122 n_126
*123 n_127
*124 n_128
*125 n_129
*126 n_132
*127 n_133
*128 n_134
*129 n_135
*130 n_136
*131 n_138
*132 n_141
*133 n_142
*134 n_145
*135 n_146
*136 n_148
*137 n_150
*138 n_151
*139 n_152
*140 n_153
*141 n_154
*142 n_155
*143 n_158
*144 n_159
*145 n_160
*146 n_161
*147 n_162
*148 n_163
*149 n_165
*150 n_166
*151 n_167
*152 n_168
*153 n_170
*154 n_171
*155 n_172
*156 n_173
*157 n_174
*158 n_175
*159 n_177
*160 n_178
*161 n_180
*162 n_181
*163 n_182
*164 n_183
*165 n_184
*166 n_185
*167 n_186
*168 n_187
*169 n_188
*170 n_189
*171 n_190
*172 n_195
*173 n_211
*174 n_212
*175 n_213
*176 n_214
*177 n_215
*178 n_216
*179 n_217
*180 n_218
*181 n_221
*182 n_222
*183 n_224
*184 n_225
*185 n_226
*186 n_227
*187 n_228
*188 n_229
*189 n_230
*190 g4362
*191 g4363
*192 g4368
*193 g4373
*194 g4374
*195 g4376
*196 g4365
*197 g4366
*198 g4367
*199 g4381
*200 g4384
*201 g4386
*202 g4370
*203 g4371
*204 g4372
*205 g4364
*206 g4375
*207 g4396
*208 g4377
*209 g4379
*210 g4369
*211 g4400
*212 g4389
*213 g4385
*214 g4403
*215 g4416
*216 g4395
*217 g4410
*218 g4409
*219 g4382
*220 g4418
*221 g4419
*222 g4427
*223 g4408
*224 g4391
*225 g4404
*226 g4407
*227 g4421
*228 g4392
*229 g4388
*230 g4432
*231 g4393
*232 g4439
*233 g4441
*234 g4440
*235 g4414
*236 g4405
*237 g4417
*238 g4424
*239 g4422
*240 g4397
*241 g4446
*242 g4447
*243 g4425
*244 g4426
*245 g4398
*246 g4436
*247 g4431
*248 g4433
*249 g4434
*250 g4467
*251 g4464
*252 g4411
*253 g4442
*254 g4435
*255 g4453
*256 g4451
*257 g4466
*258 g4457
*259 g4452
*260 g4450
*261 g4458
*262 g4476
*263 g4495
*264 g4443
*265 g4454
*266 g4445
*267 g4455
*268 g4444
*269 g4477
*270 g4472
*271 g4482
*272 g4471
*273 g4480
*274 g4474
*275 g4504
*276 g4489
*277 g4488
*278 g4484
*279 g4496
*280 g4485
*281 g4483
*282 g4463
*283 g4478
*284 g4473
*285 g4499
*286 g4491
*287 g4492
*288 g4493
*289 g4486
*290 g4500
*291 g4506
*292 g4490
*293 g4468
*294 g4465
*295 g4456
*296 g4498
*297 g4501
*298 g4534
*299 g4512
*300 g4533
*301 g4532
*302 g4528
*303 g4529
*304 g4510
*305 g4513
*306 g4535
*307 g4469
*308 g4497
*309 g4503
*310 g4502
*311 g4540
*312 g4515
*313 g4549
*314 g4546
*315 g4519
*316 g4545
*317 g4520
*318 g4517
*319 g4523
*320 g4547
*321 g4470
*322 g4518
*323 g4543
*324 g4538
*325 g4508
*326 g4537
*327 g4514
*328 g4542
*329 g4539
*330 g4522
*331 g4544
*332 g4524
*333 g4525
*334 g4548
*335 g4536
*336 g4521
*337 g4516
*338 g4526
*339 g4553
*340 g4554
*341 g4552
*342 g4557
*343 g4556
*344 g4558
*345 g4551
*346 g4559
*347 g2
*348 g4560
*349 g4561
*350 g4562
*351 g4563
*352 g4564
*353 g4565
*354 g4566
*355 g4569
*356 g4570
*357 g4572
*358 g4573
*359 g4574
*360 g4575
*361 g4576
*362 g4577
*363 g4578


*PORTS

*1 I *C 78.54 35.56
*2 I *C 43.89 0
*3 I *C 48.51 0
*4 I *C 41.25 0
*5 I *C 47.85 0
*6 I *C 49.83 0
*7 I *C 54.45 0
*8 I *C 51.81 0
*9 I *C 0 26.04
*10 I *C 0 26.04
*11 I *C 0 32.76
*12 O *C 0 50.12
*13 O *C 0 43.4
*14 O *C 0 46.2
*15 O *C 0 41.72
*16 O *C 0 35.56
*17 O *C 0 32.76
*18 O *C 0 24.92
*19 O *C 0 31.64
*20 O *C 0 45.08
*21 O *C 0 41.16


*D_NET *1 0.00340249

*CONN
*I *332:A I *C 59.73 36.12 *L 0.000544 *D OR2X1
*I *290:A0N I *C 62.37 35.56 *L 0.00068 *D OAI2BB1XL
*P *1 I *C 78.54 35.56 *L 0
*I *342:A I *C 66.33 41.72 *L 0.00057 *D INVXL

*CAP
1 *1:1 7.19795e-05
2 *1:2 7.19795e-05
3 *1:3 0.000163003
4 *1:4 0.000407508
5 *1:5 0.000244505
6 *1:6 3.59897e-05
7 *1:7 3.59897e-05
8 *1:8 3.59897e-05
9 *1:9 0.000431877
10 *1:11 0.00075389
11 *1:12 0.000395887
12 *1 0.00075389

*RES
1 *1:12 *342:A 6.4
2 *1:11 *1 3.40127
3 *1:9 *1:12 0.882886
4 *1:9 *1:11 6.4
5 *1:8 *290:A0N 6.4
6 *1:7 *1:9 0.0802624
7 *1:6 *1:8 0.0802624
8 *1:5 *1:7 6.4
9 *1:4 *1:6 6.4
10 *1:4 *1:5 1.10312
11 *1:3 *1:4 0.735411
12 *1:2 *1:3 6.4
13 *1:1 *1:2 0.160525
14 *332:A *1:1 6.4
*END

*D_NET *2 0.00451297

*CONN
*I *345:A I *C 44.55 25.48 *L 0.00057 *D INVXL
*I *316:A I *C 43.23 31.64 *L 0.000619 *D AND2XL
*P *2 I *C 43.89 0 *L 0

*CAP
1 *345:A 9.50129e-05
2 *2:1 9.50129e-05
3 *2:2 0.000448984
4 *2:3 0.000411569
5 *2:4 3.74154e-05
6 *2:6 4.75064e-05
7 *2:7 4.75064e-05
8 *2:8 0.00166498
9 *2:9 0.00166498

*RES
1 *2:10 *2 6.4
2 *2:9 *2:10 6.4
3 *2:8 *2:9 4.40336
4 *2:7 *2:8 6.4
5 *2:6 *2:7 0.183853
6 *2:4 *2:6 6.4
7 *2:3 *316:A 6.4
8 *2:2 *2:4 0.0989519
9 *2:2 *2:3 1.08847
10 *2:1 *2:2 6.4
11 *345:A *2:1 0.367705
*END

*D_NET *3 0.00821316

*CONN
*I *265:A0 I *C 60.39 10.92 *L 0.000567 *D AOI21XL
*I *214:B0 I *C 55.77 15.4 *L 0.000605 *D OAI221XL
*I *331:A I *C 47.19 21 *L 0.000544 *D OR2X1
*I *344:A I *C 44.55 15.4 *L 0.00057 *D INVXL
*I *309:A0 I *C 39.27 15.4 *L 0.000578 *D AOI22XL
*I *336:B I *C 37.95 10.92 *L 0.000575 *D AND2XL
*I *295:B I *C 41.91 10.36 *L 0.000569 *D AND3X1
*P *3 I *C 48.51 0 *L 0

*CAP
1 *3:1 0.000287918
2 *3:2 0.000287918
3 *3:3 0.000285256
4 *3:4 0.000847873
5 *3:6 0.000562617
6 *3:8 0.000374154
7 *3:9 0.000374154
8 *3:10 0.000190026
9 *344:A 0.000522571
10 *3:13 0.000380052
11 *3:14 0.000299323
12 *309:A0 4.75064e-05
13 *3:16 0.000299323
14 *3:17 4.75064e-05
15 *3:18 0.000142519
16 *3:19 3.74154e-05
17 *336:B 9.50129e-05
18 *3:21 0.0004864
19 *3:22 0.000190026
20 *3:23 0.000448984
21 *295:B 0.000190026
22 *3:25 0.00066509
23 *3:26 0.00066509
24 *3:27 0.0002432
25 *3 0.0002432

*RES
1 *3:27 *3 0.643188
2 *3:26 *3:27 6.4
3 *3:25 *3:26 2.57394
4 *3:23 *3:25 6.4
5 *3:22 *295:B 0.735411
6 *3:21 *3:23 1.18742
7 *3:21 *3:22 6.4
8 *3:19 *3:21 0.0989519
9 *3:18 *336:B 0.367705
10 *3:18 *3:19 6.4
11 *3:17 *3:18 0.183853
12 *3:16 *3:17 6.4
13 *3:14 *3:16 0.791616
14 *3:13 *309:A0 0.183853
15 *3:13 *3:14 6.4
16 *344:A *3:13 1.28697
17 *3:10 *344:A 0.735411
18 *3:9 *331:A 6.4
19 *3:8 *3:10 6.4
20 *3:8 *3:9 0.989519
21 *3:6 *3:8 6.4
22 *3:5 *214:B0 6.4
23 *3:4 *3:6 2.39008
24 *3:4 *3:5 6.4
25 *3:3 *3:4 1.28697
26 *3:2 *3:3 6.4
27 *3:1 *3:2 0.642099
28 *265:A0 *3:1 6.4
*END

*D_NET *4 0.00617197

*CONN
*I *335:B I *C 47.85 15.96 *L 0.000575 *D AND2XL
*I *343:A I *C 41.91 15.4 *L 0.00057 *D INVXL
*I *309:B1 I *C 40.59 15.4 *L 0.000624 *D AOI22XL
*I *295:A I *C 42.57 11.48 *L 0.000567 *D AND3X1
*I *310:B I *C 26.07 16.52 *L 0.00108 *D XNOR2X1
*P *4 I *C 41.25 0 *L 0

*CAP
1 *4:1 0.000112246
2 *4:2 0.000112246
3 *4:3 0.000427558
4 *4:4 0.000427558
5 *4:5 0.000112246
6 *4:6 0.000149661
7 *4:7 0.00114015
8 *4:8 0.000299323
9 *4:9 0.00114015
10 *343:A 9.50129e-05
11 *4:11 0.00101021
12 *4:12 3.74154e-05
13 *309:B1 9.50129e-05
14 *4:14 4.75064e-05
15 *4:15 0.000748307
16 *4:16 3.74154e-05
17 *295:A 4.75064e-05
18 *4:18 4.75064e-05
19 *4:20 4.75064e-05
20 *4:21 1.87077e-05
21 *4 1.87077e-05

*RES
1 *4:21 *4 0.049476
2 *4:20 *4:21 6.4
3 *4:18 *4:20 0.183853
4 *4:16 *310:B 6.4
5 *4:15 *4:18 6.4
6 *4:14 *295:A 0.183853
7 *4:12 *4:16 0.0989519
8 *4:11 *4:15 1.97904
9 *4:11 *4:14 6.4
10 *343:A *309:B1 0.367705
11 *4:9 *4:12 6.4
12 *4:8 *4:11 0.692664
13 *4:8 *343:A 6.4
14 *4:7 *4:9 4.41246
15 *4:6 *4:8 0.0989519
16 *4:6 *4:7 6.4
17 *4:5 *4:6 0.296856
18 *4:4 *4:5 6.4
19 *4:3 *4:4 1.65467
20 *4:2 *4:3 6.4
21 *4:1 *4:2 0.296856
22 *335:B *4:1 6.4
*END

*D_NET *5 0.00619667

*CONN
*I *341:A I *C 48.51 41.72 *L 0.00057 *D INVXL
*I *315:A I *C 48.51 36.12 *L 0.000544 *D OR2X1
*I *201:A I *C 49.83 31.08 *L 0.000544 *D OR2X1
*P *5 I *C 47.85 0 *L 0

*CAP
1 *5:1 0.000374154
2 *5:2 0.000542523
3 *5:4 0.000336738
4 *5:6 0.000168369
5 *5:7 0.00222621
6 *5:8 9.50129e-05
7 *5:9 0.00222621
8 *201:A 9.50129e-05
9 *5:11 4.75064e-05
10 *5:12 4.75064e-05
11 *5:13 1.87077e-05
12 *5 1.87077e-05

*RES
1 *5:13 *5 0.049476
2 *5:12 *5:13 6.4
3 *5:11 *5:12 0.183853
4 *5:9 *5:11 6.4
5 *5:8 *201:A 0.367705
6 *5:7 *5:9 5.88764
7 *5:6 *5:8 6.4
8 *5:5 *5:7 6.4
9 *5:4 *5:6 0.445284
10 *5:4 *5:5 6.4
11 *5:2 *5:4 0.445284
12 *5:2 *315:A 6.4
13 *5:1 *5:2 0.989519
14 *341:A *5:1 6.4
*END

*D_NET *6 0.00795272

*CONN
*I *207:A0N I *C 51.81 25.48 *L 0.00068 *D OAI2BB1XL
*I *346:A I *C 52.47 31.64 *L 0.00057 *D INVXL
*I *327:A I *C 45.87 31.64 *L 0.000619 *D AND2XL
*I *335:A I *C 47.19 15.4 *L 0.000619 *D AND2XL
*I *293:A1N I *C 56.43 10.36 *L 0.000626 *D OAI2BB1XL
*P *6 I *C 49.83 0 *L 0

*CAP
1 *207:A0N 4.07508e-05
2 *6:1 4.07508e-05
3 *6:2 0.000395887
4 *6:3 0.000395887
5 *6:4 0.000453876
6 *346:A 8.15016e-05
7 *327:A 0.000372375
8 *6:7 0.00104763
9 *6:8 0.00104763
10 *6:9 9.50129e-05
11 *6:10 0.000535378
12 *6:11 0.000440365
13 *6:12 3.74154e-05
14 *6:13 0.000359897
15 *6:14 3.74154e-05
16 *6:15 0.000359897
17 *6:17 0.000413343
18 *293:A1N 0.000163003
19 *6:19 0.000250339
20 *6:20 0.000692184
21 *6 0.000692184

*RES
1 *6:20 *6 1.83061
2 *6:19 *6:20 6.4
3 *6:17 *6:19 1.10312
4 *6:17 *293:A1N 0.735411
5 *6:15 *6:17 6.4
6 *6:14 *335:A 6.4
7 *6:13 *6:15 0.802624
8 *6:12 *6:14 0.0989519
9 *6:11 *6:13 6.4
10 *6:10 *6:12 6.4
11 *6:10 *6:11 1.83853
12 *6:9 *6:10 0.367705
13 *6:8 *6:9 6.4
14 *6:7 *6:8 2.77065
15 *327:A *6:7 6.4
16 *6:4 *327:A 1.47082
17 *6:4 *346:A 0.367705
18 *6:3 *6:4 6.4
19 *6:2 *6:3 0.882886
20 *6:1 *6:2 6.4
21 *207:A0N *6:1 0.183853
*END

*D_NET *7 0.00995435

*CONN
*I *336:A I *C 38.61 11.48 *L 0.000619 *D AND2XL
*I *309:B0 I *C 39.93 15.96 *L 0.000597 *D AOI22XL
*I *329:A I *C 41.25 21 *L 0.000544 *D OR2X1
*I *296:B0 I *C 51.81 15.4 *L 0.000629 *D AOI21XL
*I *338:B I *C 51.81 10.92 *L 0.000575 *D AND2XL
*P *7 I *C 54.45 0 *L 0
*I *293:A0N I *C 57.09 11.48 *L 0.00068 *D OAI2BB1XL
*I *308:B I *C 63.69 10.36 *L 0.00108 *D XNOR2X1
*I *340:A I *C 65.67 21.56 *L 0.00057 *D INVXL
*I *269:A0N I *C 63.69 31.64 *L 0.00068 *D OAI2BB1XL

*CAP
1 *7:1 0.000187077
2 *7:2 0.000187077
3 *7:3 9.50129e-05
4 *7:4 9.50129e-05
5 *7:5 0.000112246
6 *7:6 0.000112246
7 *309:B0 9.50129e-05
8 *7:8 9.50129e-05
9 *7:9 0.000411569
10 *7:10 0.000336738
11 *7:11 7.48307e-05
12 *7:13 0.00070492
13 *7:14 0.00070492
14 *7:15 0.000287918
15 *7:16 3.59897e-05
16 *7:17 0.000251928
17 *7:18 4.07508e-05
18 *7:19 4.07508e-05
19 *296:B0 4.07508e-05
20 *338:B 0.000203754
21 *7:22 0.000163003
22 *7:23 0.00073779
23 *7:24 3.59897e-05
24 *7 0.0007018
25 *7:26 0.000163003
26 *293:A0N 0.000529761
27 *7:28 0.000407508
28 *7:29 4.07508e-05
29 *7:30 0.000647815
30 *7:31 7.19795e-05
31 *7:32 0.000647815
32 *7:33 7.19795e-05
33 *7:34 4.07508e-05
34 *7:36 0.000163003
35 *340:A 0.000122252
36 *7:38 0.000647815
37 *7:39 0.000647815

*RES
1 *7:39 *269:A0N 6.4
2 *7:38 *7:39 1.44472
3 *7:36 *7:38 6.4
4 *7:36 *340:A 0.551558
5 *7:34 *7:36 0.183853
6 *7:33 *308:B 6.4
7 *7:32 *7:34 6.4
8 *7:31 *7:33 0.160525
9 *7:30 *7:32 1.44472
10 *7:29 *7:31 6.4
11 *7:28 *7:30 6.4
12 *7:28 *7:29 0.183853
13 *293:A0N *7:28 1.65467
14 *7:26 *293:A0N 0.735411
15 *7:24 *7:26 6.4
16 *7:23 *7 1.56512
17 *7:23 *7:24 0.0802624
18 *7:22 *7:23 6.4
19 *338:B *7:22 0.735411
20 *7:19 *338:B 0.183853
21 *7:18 *296:B0 0.183853
22 *7:17 *7:19 6.4
23 *7:16 *7:18 6.4
24 *7:15 *7:17 0.561837
25 *7:15 *7:16 0.0802624
26 *7:14 *7:15 6.4
27 *7:13 *7:14 2.75779
28 *7:11 *7:13 6.4
29 *7:10 *329:A 6.4
30 *7:9 *7:11 0.197904
31 *7:9 *7:10 0.890568
32 *7:8 *7:9 6.4
33 *309:B0 *7:8 0.367705
34 *7:6 *309:B0 6.4
35 *7:5 *7:6 0.296856
36 *7:4 *7:5 6.4
37 *7:3 *7:4 0.367705
38 *7:2 *7:3 6.4
39 *7:1 *7:2 0.49476
40 *336:A *7:1 6.4
*END

*D_NET *8 0.0120517

*CONN
*I *232:A0 I *C 63.03 26.04 *L 0.000567 *D AOI21XL
*I *326:A I *C 59.07 25.48 *L 0.000619 *D AND2XL
*I *339:A I *C 58.41 21.56 *L 0.00057 *D INVXL
*I *296:A0 I *C 51.15 15.96 *L 0.000567 *D AOI21XL
*I *313:A I *C 39.27 25.48 *L 0.000619 *D AND2XL
*I *338:A I *C 51.15 11.48 *L 0.000619 *D AND2XL
*I *309:A1 I *C 38.61 15.96 *L 0.00061 *D AOI22XL
*I *308:A I *C 63.69 11.48 *L 0.000573 *D XNOR2X1
*P *8 I *C 51.81 0 *L 0
*I *310:A I *C 26.07 15.4 *L 0.000573 *D XNOR2X1

*CAP
1 *232:A0 0.000163003
2 *8:1 0.000163003
3 *8:2 3.59897e-05
4 *8:3 0.000287918
5 *8:4 8.15016e-05
6 *8:5 0.000323908
7 *326:A 8.15016e-05
8 *8:7 0.000122252
9 *8:8 7.19795e-05
10 *339:A 0.000122252
11 *8:10 0.000122252
12 *8:11 0.000122252
13 *8:12 0.000143959
14 *8:13 0.000143959
15 *8:14 0.000326006
16 *8:15 0.000326006
17 *8:16 7.19795e-05
18 *8:17 0.000143959
19 *8:18 0.000969692
20 *8:19 0.000359897
21 *8:20 0.000969692
22 *8:21 0.000122252
23 *8:22 0.000287918
24 *8:23 0.000636061
25 *296:A0 0.000122252
26 *8:25 0.000652013
27 *8:26 8.15016e-05
28 *8:27 0.00056123
29 *8:28 0.000112246
30 *8:29 0.000652013
31 *8:30 0.000122252
32 *8:32 4.75064e-05
33 *8:33 3.74154e-05
34 *8:35 0.00073779
35 *338:A 4.07508e-05
36 *309:A1 4.75064e-05
37 *8:38 0.000950129
38 *8 0.00073779
39 *8:41 0.000950129

*RES
1 *8:42 *310:A 6.4
2 *8:41 *8:42 6.4
3 *8:38 *8:41 3.67705
4 *8:35 *8 1.64538
5 *8:34 *308:A 6.4
6 *8:33 *8:38 6.4
7 *8:32 *309:A1 0.183853
8 *8:30 *338:A 0.183853
9 *8:30 *8:35 6.4
10 *8:29 *8:34 6.4
11 *8:28 *8:33 0.0989519
12 *8:28 *8:32 6.4
13 *8:27 *313:A 6.4
14 *8:26 *8:30 0.367705
15 *8:25 *8:29 2.94164
16 *8:23 *8:28 0.197904
17 *8:23 *8:27 1.48428
18 *8:22 *8:26 6.4
19 *8:22 *8:25 6.4
20 *8:21 *296:A0 0.551558
21 *8:20 *8:23 6.4
22 *8:19 *8:22 0.642099
23 *8:19 *8:21 6.4
24 *8:18 *8:20 3.86091
25 *8:17 *8:19 0.160525
26 *8:17 *8:18 6.4
27 *8:16 *8:17 0.160525
28 *8:15 *8:16 6.4
29 *8:14 *8:15 1.47082
30 *8:13 *8:14 6.4
31 *8:12 *8:13 0.32105
32 *8:11 *8:12 6.4
33 *8:10 *8:11 0.551558
34 *8:8 *8:10 6.4
35 *8:7 *339:A 0.551558
36 *8:5 *8:8 0.160525
37 *8:5 *8:7 6.4
38 *8:4 *326:A 0.367705
39 *8:3 *8:5 0.561837
40 *8:3 *8:4 6.4
41 *8:2 *8:3 0.0802624
42 *8:1 *8:2 6.4
43 *232:A0 *8:1 0.735411
*END

*D_NET *9 0.0031997

*CONN
*I *337:B I *C 12.21 15.96 *L 0.000572 *D OR2X1
*I *360:AN I *C 11.55 19.32 *L 0.00063 *D NAND2BX1
*P *9 I *C 0 26.04 *L 0

*CAP
1 *337:B 9.50129e-05
2 *9:1 9.50129e-05
3 *9:2 0.000224492
4 *9:3 0.000224492
5 *9:4 4.75064e-05
6 *9:5 0.000475064
7 *360:AN 4.75064e-05
8 *9:7 0.000475064
9 *9:8 0.000448984
10 *9:9 0.000448984
11 *9:10 0.000308792
12 *9 0.000308792

*RES
1 *9:10 *9 1.19504
2 *9:9 *9:10 6.4
3 *9:8 *9:9 1.18742
4 *9:7 *9:8 6.4
5 *9:5 *9:7 1.83853
6 *9:4 *360:AN 0.183853
7 *9:3 *9:5 6.4
8 *9:3 *9:4 6.4
9 *9:2 *9:3 0.593712
10 *9:1 *9:2 6.4
11 *337:B *9:1 0.367705
*END

*D_NET *10 0.00310469

*CONN
*I *360:B I *C 12.21 21.56 *L 0.000872 *D NAND2BX1
*I *337:A I *C 11.55 15.96 *L 0.000544 *D OR2X1
*P *10 I *C 0 26.04 *L 0

*CAP
1 *360:B 4.75064e-05
2 *10:1 4.75064e-05
3 *10:2 0.000374154
4 *10:3 0.000285039
5 *10:4 0.000374154
6 *10:5 0.000285039
7 *10:7 0.000299323
8 *10:8 0.000299323
9 *10:9 0.000546324
10 *10 0.000546324

*RES
1 *10:9 *10 2.11431
2 *10:8 *10:9 6.4
3 *10:7 *10:8 0.791616
4 *10:5 *10:7 6.4
5 *10:4 *337:A 6.4
6 *10:3 *10:5 1.10312
7 *10:2 *10:4 0.989519
8 *10:2 *10:3 6.4
9 *10:1 *10:2 6.4
10 *360:B *10:1 0.183853
*END

*D_NET *11 0.00486957

*CONN
*I *258:A I *C 22.77 35.56 *L 0.000567 *D AND3X1
*I *291:A I *C 19.47 31.64 *L 0.000619 *D AND2XL
*I *359:B I *C 18.15 31.08 *L 0.000887 *D NOR2BX1
*I *288:A I *C 11.55 26.04 *L 0.000544 *D OR2X1
*P *11 I *C 0 32.76 *L 0

*CAP
1 *11:1 0.000261908
2 *11:2 0.000261908
3 *11:3 0.000237532
4 *291:A 0.000332545
5 *11:5 0.000617584
6 *11:6 3.74154e-05
7 *11:7 0.000522571
8 *11:8 3.74154e-05
9 *11:9 0.000374154
10 *11:11 0.000760103
11 *11:12 0.000374154
12 *11:13 0.000760103
13 *11:14 4.75064e-05
14 *11:15 7.48307e-05
15 *288:A 4.75064e-05
16 *11:17 7.48307e-05
17 *11:18 2.37532e-05
18 *11 2.37532e-05

*RES
1 *11:18 *11 0.0919263
2 *11:17 *11:18 6.4
3 *11:15 *11:17 0.197904
4 *11:14 *288:A 0.183853
5 *11:13 *11:15 6.4
6 *11:12 *11:14 6.4
7 *11:11 *11:13 2.94164
8 *11:9 *11:12 0.989519
9 *11:9 *11:11 6.4
10 *11:8 *359:B 6.4
11 *11:7 *11:9 6.4
12 *11:6 *11:8 0.0989519
13 *11:5 *11:7 2.02238
14 *11:5 *11:6 6.4
15 *291:A *11:5 0.367705
16 *11:3 *291:A 0.919263
17 *11:2 *11:3 6.4
18 *11:1 *11:2 0.692664
19 *258:A *11:1 6.4
*END

*D_NET *12 0.00236421

*CONN
*P *12 O *C 0 50.12 *L 0
*I *205:Y O *C 11.55 57.4 *L 0 *D OAI2BB1XL

*CAP
1 *12 0.000308792
2 *12:1 0.000308792
3 *12:2 0.000458268
4 *12:3 0.000458268
5 *12:4 0.000415047
6 *12:5 0.000415047

*RES
1 *12:6 *205:Y 6.4
2 *12:5 *12:6 6.4
3 *12:4 *12:5 2.02238
4 *12:3 *12:4 6.4
5 *12:2 *12:3 0.98393
6 *12:1 *12:2 6.4
7 *12 *12:1 1.19504
*END

*D_NET *13 0.00362602

*CONN
*P *13 O *C 0 43.4 *L 0
*I *190:B I *C 12.87 40.6 *L 0.000578 *D NOR4XL
*I *196:Y O *C 14.19 37.24 *L 0 *D OAI2BB1XL

*CAP
1 *13 2.37532e-05
2 *13:1 2.37532e-05
3 *13:2 0.000112246
4 *13:3 0.000112246
5 *13:4 0.00109265
6 *13:5 0.00109265
7 *13:6 7.48307e-05
8 *13:7 0.000299323
9 *13:8 0.000190026
10 *13:9 0.000224492
11 *190:B 0.000190026
12 *13:11 9.50129e-05
13 *196:Y 9.50129e-05

*RES
1 *13:11 *196:Y 0.367705
2 *13:9 *13:11 6.4
3 *13:8 *190:B 0.735411
4 *13:7 *13:9 0.593712
5 *13:7 *13:8 6.4
6 *13:6 *13:7 0.197904
7 *13:5 *13:6 6.4
8 *13:4 *13:5 4.22861
9 *13:3 *13:4 6.4
10 *13:2 *13:3 0.296856
11 *13:1 *13:2 6.4
12 *13 *13:1 0.0919263
*END

*D_NET *14 0.00286592

*CONN
*P *14 O *C 0 46.2 *L 0
*I *197:Y O *C 14.19 47.32 *L 0 *D OAI2BB1XL
*I *190:A I *C 14.19 41.72 *L 0.000556 *D NOR4XL

*CAP
1 *14 2.37532e-05
2 *14:1 2.37532e-05
3 *14:2 3.74154e-05
4 *14:3 3.74154e-05
5 *14:4 0.000997635
6 *14:5 0.000997635
7 *14:6 0.000374154
8 *14:7 3.74154e-05
9 *14:8 0.000336738

*RES
1 *14:8 *190:A 6.4
2 *14:7 *197:Y 6.4
3 *14:6 *14:8 0.890568
4 *14:6 *14:7 0.0989519
5 *14:5 *14:6 6.4
6 *14:4 *14:5 3.86091
7 *14:3 *14:4 6.4
8 *14:2 *14:3 0.0989519
9 *14:1 *14:2 6.4
10 *14 *14:1 0.0919263
*END

*D_NET *15 0.00500744

*CONN
*P *15 O *C 0 41.72 *L 0
*I *191:C I *C 13.53 31.08 *L 0.000594 *D OR4X2
*I *198:Y O *C 16.83 47.32 *L 0 *D OAI221XL

*CAP
1 *15 2.37532e-05
2 *15:1 2.37532e-05
3 *15:2 3.74154e-05
4 *15:3 3.74154e-05
5 *15:4 0.000950129
6 *15:5 0.000950129
7 *15:6 7.48307e-05
8 *15:7 0.000748307
9 *15:8 0.000285039
10 *15:9 0.000673476
11 *15:10 0.000285039
12 *15:12 0.000411569
13 *15:13 0.000411569
14 *15:14 4.75064e-05
15 *15:15 4.75064e-05

*RES
1 *15:16 *198:Y 6.4
2 *15:15 *15:16 6.4
3 *15:14 *15:15 0.183853
4 *15:13 *15:14 6.4
5 *15:12 *15:13 1.08847
6 *15:10 *15:12 6.4
7 *15:9 *191:C 6.4
8 *15:8 *15:10 1.10312
9 *15:7 *15:9 1.78114
10 *15:7 *15:8 6.4
11 *15:6 *15:7 0.197904
12 *15:5 *15:6 6.4
13 *15:4 *15:5 3.67705
14 *15:3 *15:4 6.4
15 *15:2 *15:3 0.0989519
16 *15:1 *15:2 6.4
17 *15 *15:1 0.0919263
*END

*D_NET *16 0.00415573

*CONN
*I *191:B I *C 14.19 32.76 *L 0.000534 *D OR4X2
*P *16 O *C 0 35.56 *L 0
*I *202:Y O *C 22.11 40.04 *L 0 *D OAI2BB1XL

*CAP
1 *16:1 0.000187077
2 *16:2 0.000187077
3 *16:3 0.00102139
4 *16:4 0.000261908
5 *16 0.00102139
6 *16:6 0.000261908
7 *16:7 0.000570077
8 *16:8 0.000570077
9 *16:9 3.74154e-05
10 *16:10 3.74154e-05

*RES
1 *16:10 *202:Y 6.4
2 *16:9 *16:10 0.0989519
3 *16:8 *16:9 6.4
4 *16:7 *16:8 2.20623
5 *16:6 *16:7 6.4
6 *16:4 *16:6 0.692664
7 *16:3 *16 3.95283
8 *16:3 *16:4 6.4
9 *16:2 *16:3 6.4
10 *16:1 *16:2 0.49476
11 *191:B *16:1 6.4
*END

*D_NET *17 0.00339268

*CONN
*P *17 O *C 0 32.76 *L 0
*I *191:A I *C 14.85 31.64 *L 0.000527 *D OR4X2
*I *212:Y O *C 15.51 27.16 *L 0 *D OAI2BB1XL

*CAP
1 *17 7.12597e-05
2 *17:1 7.12597e-05
3 *17:2 3.74154e-05
4 *17:3 3.74154e-05
5 *17:4 0.000997635
6 *17:5 0.000997635
7 *17:6 0.0002432
8 *17:7 0.0002432
9 *17:9 0.000299323
10 *17:10 0.000205784
11 *17:11 9.35384e-05
12 *17:13 4.75064e-05
13 *212:Y 4.75064e-05

*RES
1 *17:13 *212:Y 0.183853
2 *17:11 *17:13 6.4
3 *17:10 *191:A 6.4
4 *17:9 *17:11 0.24738
5 *17:9 *17:10 0.544236
6 *17:8 *17:9 6.4
7 *17:7 *17:8 6.4
8 *17:6 *17:7 0.643188
9 *17:5 *17:6 6.4
10 *17:4 *17:5 3.86091
11 *17:3 *17:4 2.54
12 *17:2 *17:3 0.0989519
13 *17:1 *17:2 2.54
14 *17 *17:1 0.275779
*END

*D_NET *18 0.00508227

*CONN
*I *191:D I *C 12.21 30.52 *L 0.000599 *D OR4X2
*P *18 O *C 0 24.92 *L 0
*I *193:Y O *C 16.83 12.04 *L 0 *D OAI31XL

*CAP
1 *191:D 4.75064e-05
2 *18:1 4.75064e-05
3 *18:2 0.000374154
4 *18:3 0.000374154
5 *18:4 4.75064e-05
6 *18:5 0.000926376
7 *18:6 0.000860553
8 *18 0.000878869
9 *18:8 0.000860553
10 *18:9 0.000332545
11 *18:10 0.000332545

*RES
1 *18:11 *193:Y 6.4
2 *18:10 *18:11 6.4
3 *18:9 *18:10 1.28697
4 *18:8 *18:9 6.4
5 *18:6 *18:8 2.27589
6 *18:5 *18 3.40127
7 *18:5 *18:6 6.4
8 *18:4 *18:5 0.183853
9 *18:3 *18:4 6.4
10 *18:2 *18:3 0.989519
11 *18:1 *18:2 6.4
12 *191:D *18:1 0.183853
*END

*D_NET *19 0.00588522

*CONN
*P *19 O *C 0 31.64 *L 0
*I *190:C I *C 12.21 41.72 *L 0.000587 *D NOR4XL
*I *192:Y O *C 17.49 17.08 *L 0 *D OAI221XL

*CAP
1 *19 2.37532e-05
2 *19:1 2.37532e-05
3 *19:2 3.74154e-05
4 *19:3 3.74154e-05
5 *19:4 0.000855116
6 *19:5 0.000855116
7 *19:6 0.000710892
8 *19:7 0.000636061
9 *19:8 7.48307e-05
10 *19:10 0.000380052
11 *19:11 0.000380052
12 *19:12 0.000935384
13 *19:13 0.000935384

*RES
1 *19:15 *192:Y 6.4
2 *19:14 *19:15 6.4
3 *19:13 *19:14 6.4
4 *19:12 *19:13 2.4738
5 *19:11 *19:12 6.4
6 *19:10 *19:11 1.47082
7 *19:8 *19:10 6.4
8 *19:7 *190:C 6.4
9 *19:6 *19:8 0.197904
10 *19:6 *19:7 1.68218
11 *19:5 *19:6 6.4
12 *19:4 *19:5 3.30935
13 *19:3 *19:4 6.4
14 *19:2 *19:3 0.0989519
15 *19:1 *19:2 6.4
16 *19 *19:1 0.0919263
*END

*D_NET *20 0.00232192

*CONN
*P *20 O *C 0 45.08 *L 0
*I *190:Y O *C 13.53 42.28 *L 0 *D NOR4XL

*CAP
1 *20 0.000783856
2 *20:1 0.000783856
3 *20:2 0.000187077
4 *20:3 0.000187077
5 *20:4 0.000190026
6 *190:Y 0.000190026

*RES
1 *20:4 *190:Y 0.735411
2 *20:3 *20:4 6.4
3 *20:2 *20:3 0.49476
4 *20:1 *20:2 6.4
5 *20 *20:1 3.03357
*END

*D_NET *21 0.00319132

*CONN
*P *21 O *C 0 41.16 *L 0
*I *225:Y O *C 17.49 36.12 *L 0 *D AND2XL

*CAP
1 *21 0.000308792
2 *21:1 0.000308792
3 *21:2 0.000336738
4 *21:3 0.000336738
5 *21:4 0.000950129
6 *21:5 0.000950129

*RES
1 *21:6 *225:Y 6.4
2 *21:5 *21:6 6.4
3 *21:4 *21:5 3.67705
4 *21:3 *21:4 6.4
5 *21:2 *21:3 0.890568
6 *21:1 *21:2 6.4
7 *21 *21:1 1.19504
*END

*D_NET *24 0.00119117

*CONN
*I *283:B I *C 48.51 10.36 *L 0.00108 *D XNOR2X1
*I *335:Y O *C 49.17 15.96 *L 0 *D AND2XL

*CAP
1 *24:2 0.000141598
2 *24:3 0.000141598
3 *24:4 0.000359897
4 *24:5 0.000359897
5 *24:6 9.40917e-05
6 *335:Y 9.40917e-05

*RES
1 *24:6 *335:Y 0.367705
2 *24:5 *24:6 6.4
3 *24:4 *24:5 0.802624
4 *24:3 *24:4 6.4
5 *24:2 *24:3 0.551558
6 *24:1 *24:2 6.4
7 *283:B *24:1 6.4
*END

*D_NET *25 0.00175308

*CONN
*I *325:A I *C 15.51 21.56 *L 0.00057 *D INVXL
*I *192:B0 I *C 18.81 15.4 *L 0.000605 *D OAI221XL
*I *337:Y O *C 13.53 14.84 *L 0 *D OR2X1

*CAP
1 *325:A 4.75064e-05
2 *25:1 4.75064e-05
3 *25:2 0.000411569
4 *25:3 0.000411569
5 *25:4 0.000190026
6 *25:5 0.000190026
7 *192:B0 0.000190026
8 *25:7 0.000190026
9 *25:8 3.74154e-05
10 *25:9 3.74154e-05

*RES
1 *25:9 *337:Y 6.4
2 *25:8 *25:9 0.0989519
3 *25:7 *25:8 6.4
4 *25:5 *25:7 0.735411
5 *25:4 *192:B0 0.735411
6 *25:3 *25:5 6.4
7 *25:3 *25:4 6.4
8 *25:2 *25:3 1.08847
9 *25:1 *25:2 6.4
10 *325:A *25:1 0.183853
*END

*D_NET *26 0.000388464

*CONN
*I *293:B0 I *C 57.75 10.92 *L 0.000661 *D OAI2BB1XL
*I *321:Y O *C 55.77 12.04 *L 0 *D INVXL

*CAP
1 *26:1 7.19795e-05
2 *26:2 7.19795e-05
3 *26:3 0.000122252
4 *321:Y 0.000122252

*RES
1 *26:3 *321:Y 0.551558
2 *26:2 *26:3 6.4
3 *26:1 *26:2 0.160525
4 *293:B0 *26:1 6.4
*END

*D_NET *27 0.00657174

*CONN
*I *320:A I *C 45.87 41.16 *L 0.000544 *D OR2X1
*I *248:A I *C 37.95 35.56 *L 0.000527 *D OR4X2
*I *313:B I *C 38.61 26.04 *L 0.000575 *D AND2XL
*I *343:Y O *C 42.57 14.84 *L 0 *D INVXL
*I *334:A I *C 46.53 21 *L 0.000544 *D OR2X1

*CAP
1 *320:A 4.75064e-05
2 *27:1 4.75064e-05
3 *27:2 0.000411569
4 *27:3 0.000411569
5 *27:4 0.000617584
6 *27:5 0.00066509
7 *27:6 3.74154e-05
8 *27:7 4.75064e-05
9 *27:8 3.74154e-05
10 *27:9 0.000598646
11 *27:11 0.000598646
12 *27:12 9.50129e-05
13 *27:13 0.000190026
14 *27:14 9.50129e-05
15 *27:16 0.000448984
16 *27:18 0.000448984
17 *27:19 0.000190026
18 *27:20 0.000475064
19 *27:21 0.000285039
20 *27:22 0.000299323
21 *27:23 0.000112246
22 *27:24 0.000299323
23 *27:25 0.000112246

*RES
1 *27:25 *334:A 6.4
2 *27:24 *343:Y 6.4
3 *27:23 *27:25 0.296856
4 *27:22 *27:24 0.791616
5 *27:21 *27:23 6.4
6 *27:20 *27:22 6.4
7 *27:20 *27:21 1.10312
8 *27:19 *27:20 0.735411
9 *27:18 *27:19 6.4
10 *27:16 *27:18 1.18742
11 *27:15 *313:B 6.4
12 *27:14 *27:16 6.4
13 *27:13 *27:15 6.4
14 *27:13 *27:14 0.367705
15 *27:12 *27:13 0.367705
16 *27:11 *27:12 6.4
17 *27:9 *27:11 1.58323
18 *27:8 *248:A 6.4
19 *27:7 *27:9 6.4
20 *27:6 *27:8 0.0989519
21 *27:5 *27:7 0.183853
22 *27:5 *27:6 6.4
23 *27:4 *27:5 2.39008
24 *27:3 *27:4 6.4
25 *27:2 *27:3 1.08847
26 *27:1 *27:2 6.4
27 *320:A *27:1 0.183853
*END

*D_NET *28 0.00189095

*CONN
*I *283:A I *C 48.51 11.48 *L 0.000573 *D XNOR2X1
*I *311:Y O *C 49.17 24.92 *L 0 *D OR2X1

*CAP
1 *28:1 7.48307e-05
2 *28:2 7.48307e-05
3 *28:3 4.75064e-05
4 *28:4 4.75064e-05
5 *28:5 0.000823138
6 *28:6 0.000823138

*RES
1 *28:6 *311:Y 6.4
2 *28:5 *28:6 2.17694
3 *28:4 *28:5 6.4
4 *28:3 *28:4 0.183853
5 *28:2 *28:3 6.4
6 *28:1 *28:2 0.197904
7 *283:A *28:1 6.4
*END

*D_NET *29 0.000604544

*CONN
*I *192:B1 I *C 19.47 16.52 *L 0.000584 *D OAI221XL
*I *310:Y O *C 22.11 14.84 *L 0 *D XNOR2X1

*CAP
1 *29:1 0.000112246
2 *29:2 0.000112246
3 *29:3 0.000190026
4 *310:Y 0.000190026

*RES
1 *29:3 *310:Y 0.735411
2 *29:2 *29:3 6.4
3 *29:1 *29:2 0.296856
4 *192:B1 *29:1 6.4
*END

*D_NET *30 0.00320436

*CONN
*I *193:A1 I *C 18.81 11.48 *L 0.000615 *D OAI31XL
*I *309:Y O *C 37.95 14.84 *L 0 *D AOI22XL

*CAP
1 *30:1 0.000224492
2 *30:2 0.000224492
3 *30:3 0.00137769
4 *30:4 0.00137769

*RES
1 *30:5 *309:Y 6.4
2 *30:4 *30:5 6.4
3 *30:3 *30:4 5.33173
4 *30:2 *30:3 6.4
5 *30:1 *30:2 0.593712
6 *193:A1 *30:1 6.4
*END

*D_NET *31 0.000886996

*CONN
*I *265:B0 I *C 61.05 11.48 *L 0.000629 *D AOI21XL
*I *308:Y O *C 67.65 12.04 *L 0 *D XNOR2X1

*CAP
1 *31:1 3.59897e-05
2 *31:2 3.59897e-05
3 *31:3 0.000407508
4 *308:Y 0.000407508

*RES
1 *31:3 *308:Y 1.83853
2 *31:2 *31:3 6.4
3 *31:1 *31:2 0.0802624
4 *265:B0 *31:1 6.4
*END

*D_NET *32 0.00183381

*CONN
*I *255:B0 I *C 28.71 21.56 *L 0.000565 *D OAI22XL
*I *307:A I *C 32.67 21.56 *L 0.00057 *D INVXL
*I *313:Y O *C 37.29 26.04 *L 0 *D AND2XL

*CAP
1 *255:B0 0.000285039
2 *307:A 0.000285039
3 *32:2 7.48307e-05
4 *32:3 7.48307e-05
5 *32:4 0.000332545
6 *32:5 0.000332545
7 *32:6 0.000224492
8 *32:7 0.000224492

*RES
1 *32:7 *313:Y 6.4
2 *32:6 *32:7 0.593712
3 *32:5 *32:6 6.4
4 *32:4 *32:5 1.28697
5 *32:3 *32:4 6.4
6 *32:2 *32:3 0.197904
7 *307:A *32:2 6.4
8 *255:B0 *307:A 1.10312
*END

*D_NET *33 0.000454882

*CONN
*I *270:A0N I *C 43.89 35.56 *L 0.00068 *D OAI2BB1XL
*I *304:A I *C 45.21 35.56 *L 0.00057 *D INVXL
*I *315:Y O *C 46.53 35 *L 0 *D OR2X1

*CAP
1 *270:A0N 9.50129e-05
2 *304:A 9.50129e-05
3 *33:2 3.74154e-05
4 *33:3 3.74154e-05
5 *33:4 9.50129e-05
6 *315:Y 9.50129e-05

*RES
1 *33:4 *315:Y 0.367705
2 *33:3 *33:4 6.4
3 *33:2 *33:3 0.0989519
4 *304:A *33:2 6.4
5 *270:A0N *304:A 0.367705
*END

*D_NET *34 0.000614228

*CONN
*I *286:B I *C 51.15 56.28 *L 0.000575 *D AND2XL
*I *328:Y O *C 50.49 52.36 *L 0 *D OR2X1
*I *303:A I *C 51.15 51.8 *L 0.00057 *D INVXL

*CAP
1 *34:1 0.000238141
2 *34:2 0.000272161
3 *34:3 3.49534e-05
4 *34:4 3.40201e-05
5 *328:Y 3.49534e-05

*RES
1 *34:4 *303:A 6.4
2 *34:3 *328:Y 0.183853
3 *34:2 *34:4 0.0841901
4 *34:2 *34:3 6.4
5 *34:1 *34:2 0.589331
6 *286:B *34:1 6.4
*END

*D_NET *35 0.00295627

*CONN
*I *258:B I *C 23.43 36.68 *L 0.000569 *D AND3X1
*I *302:Y O *C 14.85 24.92 *L 0 *D INVXL

*CAP
1 *35:1 0.000823138
2 *35:2 0.000823138
3 *35:3 0.000617584
4 *35:4 0.000617584
5 *35:5 3.74154e-05
6 *35:6 3.74154e-05

*RES
1 *35:6 *302:Y 6.4
2 *35:5 *35:6 0.0989519
3 *35:4 *35:5 6.4
4 *35:3 *35:4 2.39008
5 *35:2 *35:3 6.4
6 *35:1 *35:2 2.17694
7 *258:B *35:1 6.4
*END

*D_NET *36 0.00116872

*CONN
*I *270:A1N I *C 44.55 36.68 *L 0.000626 *D OAI2BB1XL
*I *301:Y O *C 40.59 32.2 *L 0 *D INVXL

*CAP
1 *36:1 0.000261908
2 *36:2 0.000261908
3 *36:3 0.000285039
4 *36:4 0.000285039
5 *36:5 3.74154e-05
6 *36:6 3.74154e-05

*RES
1 *36:6 *301:Y 6.4
2 *36:5 *36:6 0.0989519
3 *36:4 *36:5 6.4
4 *36:3 *36:4 1.10312
5 *36:2 *36:3 6.4
6 *36:1 *36:2 0.692664
7 *270:A1N *36:1 6.4
*END

*D_NET *37 0.00113682

*CONN
*I *284:C I *C 59.07 41.16 *L 0.000573 *D NAND3XL
*I *300:A I *C 62.37 41.72 *L 0.00057 *D INVXL
*I *314:Y O *C 59.73 46.2 *L 0 *D AND2XL

*CAP
1 *284:C 8.15016e-05
2 *37:1 8.15016e-05
3 *37:2 3.59897e-05
4 *37:3 0.000323908
5 *37:4 0.000287918
6 *37:5 0.000122252
7 *37:6 4.07508e-05
8 *300:A 0.000122252
9 *314:Y 4.07508e-05

*RES
1 *37:6 *314:Y 0.183853
2 *37:5 *300:A 0.551558
3 *37:4 *37:6 6.4
4 *37:3 *37:5 6.4
5 *37:3 *37:4 0.642099
6 *37:2 *37:3 0.0802624
7 *37:1 *37:2 6.4
8 *284:C *37:1 0.367705
*END

*D_NET *38 0.000523815

*CONN
*I *259:A2 I *C 49.83 46.2 *L 0.00063 *D OAI31XL
*I *298:Y O *C 49.83 42.28 *L 0 *D INVXL

*CAP
1 *38:1 0.000261908
2 *38:2 0.000261908

*RES
1 *38:2 *298:Y 6.4
2 *38:1 *38:2 0.692664
3 *259:A2 *38:1 6.4
*END

*D_NET *39 0.000719739

*CONN
*I *267:B0 I *C 35.31 21 *L 0.000661 *D OAI2BB1XL
*I *358:A I *C 37.95 21 *L 0.000839 *D NAND2X1